Version 4
SHEET 1 1000 680
WIRE 656 -224 320 -224
WIRE 320 -176 320 -224
WIRE 320 -176 240 -176
WIRE 400 -176 320 -176
WIRE 656 -160 656 -224
WIRE 240 -144 240 -176
WIRE 400 -144 400 -176
WIRE 656 -48 656 -80
WIRE 112 -32 48 -32
WIRE 240 -32 240 -64
WIRE 240 -32 192 -32
WIRE 400 -32 400 -64
WIRE 464 -32 400 -32
WIRE 592 -32 544 -32
WIRE 240 0 240 -32
WIRE 400 0 400 -32
WIRE -112 48 -192 48
WIRE 48 48 48 -32
WIRE 48 48 -32 48
WIRE 176 48 48 48
WIRE 592 48 592 -32
WIRE 592 48 464 48
WIRE 688 48 592 48
WIRE 816 48 768 48
WIRE -192 112 -192 48
WIRE 816 112 816 48
WIRE 240 144 240 96
WIRE 320 144 240 144
WIRE 400 144 400 96
WIRE 400 144 320 144
WIRE 320 176 320 144
WIRE -192 240 -192 192
WIRE 320 272 320 256
WIRE 320 384 320 352
FLAG 816 112 0
FLAG 320 384 0
FLAG 656 -48 0
FLAG -192 240 0
SYMBOL npn 176 0 R0
SYMATTR InstName Q1
SYMATTR Value 2N3904
SYMBOL npn 464 0 M0
SYMATTR InstName Q2
SYMATTR Value 2N3904
SYMBOL res 224 -160 R0
SYMATTR InstName R1
SYMATTR Value 6.8k
SYMBOL res 384 -160 R0
SYMATTR InstName R2
SYMATTR Value 6.8k
SYMBOL voltage -192 96 R0
WINDOW 123 0 0 Left 0
WINDOW 39 0 0 Left 0
SYMATTR InstName V1
SYMATTR Value PULSE(0 .1 0 20n 20n 1m 2m 20)
SYMBOL voltage 656 -176 R0
WINDOW 123 0 0 Left 0
WINDOW 39 0 0 Left 0
SYMATTR InstName V2
SYMATTR Value 25
SYMBOL voltage 320 256 R0
WINDOW 123 0 0 Left 0
WINDOW 39 0 0 Left 0
SYMATTR InstName V3
SYMATTR Value -100
SYMBOL res -16 32 R90
WINDOW 0 0 56 VBottom 2
WINDOW 3 32 56 VTop 2
SYMATTR InstName R3
SYMATTR Value 1k
SYMBOL res 784 32 R90
WINDOW 0 0 56 VBottom 2
WINDOW 3 32 56 VTop 2
SYMATTR InstName R4
SYMATTR Value 1k
SYMBOL res 304 160 R0
SYMATTR InstName R5
SYMATTR Value 56k
SYMBOL res 208 -48 R90
WINDOW 0 0 56 VBottom 2
WINDOW 3 32 56 VTop 2
SYMATTR InstName R6
SYMATTR Value 20k
SYMBOL res 560 -48 R90
WINDOW 0 0 56 VBottom 2
WINDOW 3 32 56 VTop 2
SYMATTR InstName R7
SYMATTR Value 20k
TEXT -80 312 Left 2 !.tran 0 20mS 0
