Version 4
SHEET 1 1344 680
WIRE 224 -112 -240 -112
WIRE 320 -112 224 -112
WIRE 544 -112 400 -112
WIRE 656 -112 544 -112
WIRE 800 -112 720 -112
WIRE 1040 -112 800 -112
WIRE 1264 -112 1040 -112
WIRE 800 -64 800 -112
WIRE 224 32 224 -112
WIRE -240 96 -240 -112
WIRE 544 96 544 -112
WIRE 544 96 368 96
WIRE 1040 128 1040 -112
WIRE 1264 144 1264 -112
WIRE 800 160 800 16
WIRE 800 160 368 160
WIRE 560 288 368 288
WIRE -240 304 -240 176
WIRE 560 336 560 288
WIRE 800 336 800 160
WIRE 1040 448 1040 192
WIRE 1264 448 1264 224
WIRE 560 464 560 400
WIRE 144 480 144 352
WIRE 304 480 304 352
WIRE 800 496 800 416
WIRE 560 592 560 544
FLAG 144 480 0
FLAG 304 480 0
FLAG -240 304 0
FLAG 800 496 0
FLAG 560 592 0
FLAG 1040 448 0
FLAG 1264 448 0
SYMBOL PowerProducts\\LT1373 224 192 R0
SYMATTR InstName U1
SYMBOL diode 656 -96 R270
WINDOW 0 32 32 VTop 2
WINDOW 3 0 32 VBottom 2
SYMATTR InstName D1
SYMATTR Value 1N4148
SYMBOL ind 304 -96 R270
WINDOW 0 32 56 VTop 2
WINDOW 3 5 56 VBottom 2
SYMATTR InstName L1
SYMATTR Value 330µ
SYMATTR SpiceLine Ipk=1 Rser=0.9351 Rpar=44274 Cpar=0
SYMBOL voltage -240 80 R0
WINDOW 123 0 0 Left 2
WINDOW 39 0 0 Left 2
SYMATTR InstName V1
SYMATTR Value 5
SYMBOL res 784 -80 R0
SYMATTR InstName R1
SYMATTR Value 215K
SYMATTR SpiceLine tol=1 pwr=0.1
SYMBOL res 784 320 R0
SYMATTR InstName R2
SYMATTR Value 24.9K
SYMATTR SpiceLine tol=1 pwr=0.1
SYMBOL cap 544 336 R0
SYMATTR InstName C1
SYMATTR Value 0.047µ
SYMATTR SpiceLine V=50 Irms=1.3 Rser=0.116668 Lser=0 mfg="KEMET" pn="C1210C473K5RAC" type="X7R"
SYMBOL res 544 448 R0
SYMATTR InstName R3
SYMATTR Value 5.11K
SYMATTR SpiceLine tol=1 pwr=0.1
SYMBOL polcap 1024 128 R0
WINDOW 3 24 56 Left 2
SYMATTR InstName C2
SYMATTR Value 10µ
SYMATTR Description Capacitor
SYMATTR Type cap
SYMATTR SpiceLine V=16 Irms=2.12132 Rser=0.06 Lser=0 mfg="KEMET" pn="A700V106M016ATE060" type="Al electrolytic"
SYMBOL res 1248 128 R0
SYMATTR InstName R4
SYMATTR Value 604
SYMATTR SpiceLine tol=1 pwr=0.1
TEXT -274 616 Left 2 !.tran 0 .033 0 startup
