Version 4
SHEET 1 1856 2244
WIRE -2272 -1104 -2896 -1104
WIRE -1072 -1104 -2272 -1104
WIRE -528 -1104 -1072 -1104
WIRE 144 -1104 -528 -1104
WIRE 624 -1104 144 -1104
WIRE 1232 -1104 624 -1104
WIRE -1072 -1040 -1072 -1104
WIRE -2896 -1024 -2896 -1104
WIRE -2272 -1024 -2272 -1104
WIRE -528 -1024 -528 -1104
WIRE 624 -1024 624 -1104
WIRE 1232 -1024 1232 -1104
WIRE 144 -992 144 -1104
WIRE -1072 -912 -1072 -960
WIRE -912 -912 -1072 -912
WIRE -528 -912 -528 -944
WIRE -528 -912 -688 -912
WIRE -912 -880 -912 -912
WIRE -688 -880 -688 -912
WIRE -1072 -864 -1072 -912
WIRE -528 -864 -528 -912
WIRE 144 -864 144 -912
WIRE -2896 -784 -2896 -944
WIRE -2576 -784 -2720 -784
WIRE -2368 -784 -2496 -784
WIRE 816 -784 720 -784
WIRE 1024 -784 896 -784
WIRE 1232 -784 1232 -944
WIRE -2720 -736 -2720 -784
WIRE -2720 -736 -2752 -736
WIRE -2368 -736 -2368 -784
WIRE -2272 -736 -2272 -944
WIRE -2272 -736 -2368 -736
WIRE -2224 -736 -2272 -736
WIRE -2112 -736 -2160 -736
WIRE -1600 -736 -2112 -736
WIRE -912 -736 -912 -816
WIRE -912 -736 -1536 -736
WIRE -688 -736 -688 -816
WIRE -80 -736 -688 -736
WIRE 464 -736 -16 -736
WIRE 512 -736 464 -736
WIRE 624 -736 624 -944
WIRE 624 -736 576 -736
WIRE 720 -736 720 -784
WIRE 720 -736 624 -736
WIRE 1024 -736 1024 -784
WIRE 1088 -736 1024 -736
WIRE -2720 -688 -2720 -736
WIRE -2576 -688 -2720 -688
WIRE -2368 -688 -2368 -736
WIRE -2368 -688 -2512 -688
WIRE 720 -688 720 -736
WIRE 816 -688 720 -688
WIRE 1024 -688 1024 -736
WIRE 1024 -688 880 -688
WIRE -2272 -640 -2272 -736
WIRE 624 -640 624 -736
WIRE -2112 -592 -2112 -736
WIRE -2112 -592 -2208 -592
WIRE -2048 -592 -2112 -592
WIRE -1872 -592 -1984 -592
WIRE -1696 -592 -1808 -592
WIRE -1536 -592 -1632 -592
WIRE -1376 -592 -1472 -592
WIRE -1216 -592 -1312 -592
WIRE -912 -592 -912 -736
WIRE -912 -592 -1152 -592
WIRE -688 -592 -688 -736
WIRE -432 -592 -688 -592
WIRE -288 -592 -368 -592
WIRE -144 -592 -224 -592
WIRE 16 -592 -80 -592
WIRE 176 -592 80 -592
WIRE 336 -592 240 -592
WIRE 464 -592 464 -736
WIRE 464 -592 400 -592
WIRE 560 -592 464 -592
WIRE -912 -528 -912 -592
WIRE -688 -528 -688 -592
WIRE -1072 -480 -1072 -784
WIRE -976 -480 -1072 -480
WIRE -528 -480 -528 -784
WIRE -528 -480 -624 -480
WIRE -912 -384 -912 -432
WIRE -784 -384 -912 -384
WIRE -688 -384 -688 -432
WIRE -688 -384 -784 -384
WIRE -1072 -208 -1072 -480
WIRE -528 -208 -528 -480
WIRE -2896 -160 -2896 -640
WIRE -2816 -160 -2896 -160
WIRE -1840 -160 -2736 -160
WIRE -1136 -160 -1840 -160
WIRE -48 -160 -464 -160
WIRE 1072 -160 -48 -160
WIRE 1232 -160 1232 -640
WIRE 1232 -160 1152 -160
WIRE -48 -96 -48 -160
WIRE -1840 -80 -1840 -160
WIRE -1072 -16 -1072 -112
WIRE -784 -16 -784 -384
WIRE -784 -16 -1072 -16
WIRE -528 -16 -528 -112
WIRE -528 -16 -784 -16
WIRE -1840 48 -1840 0
WIRE -48 48 -48 -16
WIRE -1456 96 -1616 96
WIRE -1280 96 -1456 96
WIRE -1104 96 -1280 96
WIRE -784 96 -1104 96
WIRE -1104 160 -1104 96
WIRE -1456 176 -1456 96
WIRE -1616 224 -1616 96
WIRE -784 256 -784 96
WIRE -3088 272 -3200 272
WIRE -2896 272 -2896 -160
WIRE -2896 272 -3024 272
WIRE 1232 272 1232 -160
WIRE 1360 272 1232 272
WIRE 1536 272 1424 272
WIRE -528 288 -528 -16
WIRE -2272 304 -2272 -544
WIRE -2272 304 -2432 304
WIRE -1104 304 -1104 240
WIRE -848 304 -1104 304
WIRE 624 304 624 -544
WIRE 784 304 624 304
WIRE -1280 336 -1280 96
WIRE -2272 416 -2272 304
WIRE -2112 416 -2112 -592
WIRE 464 416 464 -592
WIRE 624 416 624 304
WIRE -3200 432 -3200 272
WIRE -2896 432 -2896 272
WIRE -2432 432 -2432 304
WIRE -1104 432 -1104 304
WIRE -784 432 -784 352
WIRE 784 432 784 304
WIRE 1232 432 1232 272
WIRE 1536 432 1536 272
WIRE -1456 448 -1456 256
WIRE -3200 624 -3200 512
WIRE -3040 624 -3200 624
WIRE -2896 624 -2896 512
WIRE -2896 624 -3040 624
WIRE -2432 624 -2432 496
WIRE -2272 624 -2272 496
WIRE -2272 624 -2432 624
WIRE -2112 624 -2112 496
WIRE -2112 624 -2272 624
WIRE -1840 624 -1840 128
WIRE -1840 624 -2112 624
WIRE -1456 624 -1456 528
WIRE -1456 624 -1840 624
WIRE -1280 624 -1280 416
WIRE -1280 624 -1456 624
WIRE -1104 624 -1104 512
WIRE -1104 624 -1280 624
WIRE -784 624 -784 512
WIRE -784 624 -1104 624
WIRE -528 624 -528 368
WIRE -528 624 -784 624
WIRE -48 624 -48 128
WIRE -48 624 -528 624
WIRE 464 624 464 496
WIRE 464 624 -48 624
WIRE 624 624 624 496
WIRE 624 624 464 624
WIRE 784 624 784 496
WIRE 784 624 624 624
WIRE 1232 624 1232 512
WIRE 1376 624 1232 624
WIRE 1536 624 1536 512
WIRE 1536 624 1376 624
WIRE -3040 688 -3040 624
WIRE 1376 688 1376 624
FLAG 1376 688 0
FLAG 144 -864 0
FLAG -3040 688 0
FLAG -1616 224 0
DATAFLAG -1072 -336 ""
DATAFLAG -528 -352 ""
DATAFLAG -1424 -736 ""
DATAFLAG -352 -736 ""
DATAFLAG -1776 -736 ""
DATAFLAG 176 -736 ""
DATAFLAG -336 624 ""
DATAFLAG -192 -1104 ""
DATAFLAG -624 -912 ""
DATAFLAG -976 -912 ""
DATAFLAG -624 -16 ""
DATAFLAG -320 -160 ""
DATAFLAG -1408 -160 ""
SYMBOL voltage -48 144 M180
WINDOW 123 0 0 Left 2
WINDOW 39 24 68 Left 2
SYMATTR SpiceLine Rser=0
SYMATTR InstName V1
SYMATTR Value PULSE(5 5 0 1n 1n 50u 100u)
SYMBOL Darlington\\TIP142 1104 -784 R0
SYMATTR InstName U1
SYMBOL npn -1136 -208 R0
SYMATTR InstName Q1
SYMATTR Value 2N3904
SYMBOL npn -464 -208 M0
SYMATTR InstName Q2
SYMATTR Value 2N3904
SYMBOL npn -848 256 R0
SYMATTR InstName Q3
SYMATTR Value 2N3904
SYMBOL res -800 416 R0
SYMATTR InstName R3
SYMATTR Value 1200
SYMBOL res -1120 144 R0
SYMATTR InstName R4
SYMATTR Value 2.7K
SYMBOL res -1120 416 R0
SYMATTR InstName R5
SYMATTR Value .91K
SYMBOL voltage -1280 320 R0
WINDOW 123 0 0 Left 2
WINDOW 39 0 0 Left 2
SYMATTR InstName V3
SYMATTR Value 10
SYMBOL pnp -976 -432 M180
SYMATTR InstName Q4
SYMATTR Value 2N3906
SYMBOL pnp -624 -432 R180
SYMATTR InstName Q5
SYMATTR Value 2N3906
SYMBOL res -1088 -880 R0
SYMATTR InstName R6
SYMATTR Value 47K
SYMBOL res -64 -112 R0
SYMATTR InstName R7
SYMATTR Value 1000
SYMBOL res -1088 -1056 R0
SYMATTR InstName R8
SYMATTR Value 10K
SYMBOL res -544 -1040 R0
SYMATTR InstName R9
SYMATTR Value 10K
SYMBOL diode -432 -576 R270
WINDOW 0 32 32 VTop 2
WINDOW 3 0 32 VBottom 2
SYMATTR InstName D3
SYMATTR Value 1N4148
SYMBOL diode -288 -576 R270
WINDOW 0 32 32 VTop 2
WINDOW 3 0 32 VBottom 2
SYMATTR InstName D4
SYMATTR Value 1N4148
SYMBOL diode -144 -576 R270
WINDOW 0 32 32 VTop 2
WINDOW 3 0 32 VBottom 2
SYMATTR InstName D5
SYMATTR Value 1N4148
SYMBOL diode 16 -576 R270
WINDOW 0 32 32 VTop 2
WINDOW 3 0 32 VBottom 2
SYMATTR InstName D6
SYMATTR Value 1N4148
SYMBOL diode 176 -576 R270
WINDOW 0 32 32 VTop 2
WINDOW 3 0 32 VBottom 2
SYMATTR InstName D7
SYMATTR Value 1N4148
SYMBOL diode 336 -576 R270
WINDOW 0 32 32 VTop 2
WINDOW 3 0 32 VBottom 2
SYMATTR InstName D8
SYMATTR Value 1N4148
SYMBOL cap -16 -752 R90
WINDOW 0 0 32 VBottom 2
WINDOW 3 32 32 VTop 2
SYMATTR InstName C1
SYMATTR Value .02µF
SYMBOL res 608 -1040 R0
SYMATTR InstName R10
SYMATTR Value 9100
SYMBOL pnp 560 -544 M180
SYMATTR InstName Q6
SYMATTR Value 2N3906
SYMBOL diode 512 -720 R270
WINDOW 0 32 32 VTop 2
WINDOW 3 0 32 VBottom 2
SYMATTR InstName D9
SYMATTR Value 1N4148
SYMBOL res 608 400 R0
SYMATTR InstName R11
SYMATTR Value 1K
SYMBOL res 448 400 R0
SYMATTR InstName R12
SYMATTR Value 10K
SYMBOL cap 768 432 R0
SYMATTR InstName C2
SYMATTR Value .02µ
SYMBOL res 1216 416 R0
SYMATTR InstName R14
SYMATTR Value 3.3
SYMBOL cap 1424 256 R90
WINDOW 0 0 32 VBottom 2
WINDOW 3 32 32 VTop 2
SYMATTR InstName C4
SYMATTR Value .3µ
SYMBOL res 1520 416 R0
SYMATTR InstName R1
SYMATTR Value 3.3
SYMBOL voltage 144 -1008 R0
WINDOW 123 0 0 Left 2
WINDOW 39 0 0 Left 2
SYMATTR InstName V2
SYMATTR Value 50
SYMBOL Darlington\\TIP142 -2768 -784 M0
SYMATTR InstName U2
SYMBOL diode -1152 -576 M270
WINDOW 0 32 32 VTop 2
WINDOW 3 0 32 VBottom 2
SYMATTR InstName D10
SYMATTR Value 1N4148
SYMBOL diode -1312 -576 M270
WINDOW 0 32 32 VTop 2
WINDOW 3 0 32 VBottom 2
SYMATTR InstName D11
SYMATTR Value 1N4148
SYMBOL diode -1472 -576 M270
WINDOW 0 32 32 VTop 2
WINDOW 3 0 32 VBottom 2
SYMATTR InstName D12
SYMATTR Value 1N4148
SYMBOL diode -1632 -576 M270
WINDOW 0 32 32 VTop 2
WINDOW 3 0 32 VBottom 2
SYMATTR InstName D13
SYMATTR Value 1N4148
SYMBOL diode -1984 -576 M270
WINDOW 0 32 32 VTop 2
WINDOW 3 0 32 VBottom 2
SYMATTR InstName D14
SYMATTR Value 1N4148
SYMBOL cap -1600 -752 M90
WINDOW 0 0 32 VBottom 2
WINDOW 3 32 32 VTop 2
SYMATTR InstName C3
SYMATTR Value .02µF
SYMBOL res -2256 -1040 M0
SYMATTR InstName R2
SYMATTR Value 9100
SYMBOL pnp -2208 -544 R180
SYMATTR InstName Q7
SYMATTR Value 2N3906
SYMBOL diode -2160 -720 M270
WINDOW 0 32 32 VTop 2
WINDOW 3 0 32 VBottom 2
SYMATTR InstName D15
SYMATTR Value 1N4148
SYMBOL res -2256 400 M0
SYMATTR InstName R13
SYMATTR Value 1K
SYMBOL res -2096 400 M0
SYMATTR InstName R15
SYMATTR Value 10K
SYMBOL cap -2416 432 M0
SYMATTR InstName C5
SYMATTR Value .02µ
SYMBOL res -2880 416 M0
SYMATTR InstName R16
SYMATTR Value 3.3
SYMBOL cap -3088 256 M90
WINDOW 0 0 32 VBottom 2
WINDOW 3 32 32 VTop 2
SYMATTR InstName C6
SYMATTR Value .3µ
SYMBOL res -3184 416 M0
SYMATTR InstName R17
SYMATTR Value 3.3
SYMBOL res 1216 -1040 R0
SYMATTR InstName R18
SYMATTR Value .05
SYMBOL res -2912 -1040 R0
SYMATTR InstName R19
SYMATTR Value .05
SYMBOL res 1168 -176 R90
WINDOW 0 0 56 VBottom 2
WINDOW 3 32 56 VTop 2
SYMATTR InstName R21
SYMATTR Value 2K
SYMBOL res -1472 160 R0
SYMATTR InstName R20
SYMATTR Value 190
SYMBOL res -1472 432 R0
SYMATTR InstName R22
SYMATTR Value 190
SYMBOL res -2720 -176 R90
WINDOW 0 0 56 VBottom 2
WINDOW 3 32 56 VTop 2
SYMATTR InstName R23
SYMATTR Value 2K
SYMBOL res -1856 -96 R0
SYMATTR InstName R24
SYMATTR Value 1000
SYMBOL res -544 -880 R0
SYMATTR InstName R25
SYMATTR Value 47K
SYMBOL diode -1808 -576 M270
WINDOW 0 32 32 VTop 2
WINDOW 3 0 32 VBottom 2
SYMATTR InstName D16
SYMATTR Value 1N4148
SYMBOL voltage -1840 32 R0
WINDOW 123 0 0 Left 2
WINDOW 39 24 124 Left 2
SYMATTR SpiceLine Rser=0
SYMATTR InstName V4
SYMATTR Value 5
SYMBOL zener -928 -816 M180
WINDOW 0 24 64 Left 2
WINDOW 3 24 0 Left 2
SYMATTR InstName D1
SYMATTR Value UDZV6_8B
SYMBOL zener -704 -816 M180
WINDOW 0 24 64 Left 2
WINDOW 3 24 0 Left 2
SYMATTR InstName D2
SYMATTR Value UDZV6_8B
SYMBOL cap 880 -704 R90
WINDOW 0 0 32 VBottom 2
WINDOW 3 32 32 VTop 2
SYMATTR InstName C7
SYMATTR Value 3.4µF
SYMBOL res 912 -800 R90
WINDOW 0 0 56 VBottom 2
WINDOW 3 32 56 VTop 2
SYMATTR InstName R26
SYMATTR Value 10
SYMBOL cap -2512 -704 R90
WINDOW 0 0 32 VBottom 2
WINDOW 3 32 32 VTop 2
SYMATTR InstName C8
SYMATTR Value 3.4µF
SYMBOL res -2480 -800 R90
WINDOW 0 0 56 VBottom 2
WINDOW 3 32 56 VTop 2
SYMATTR InstName R27
SYMATTR Value 10
SYMBOL current -528 288 R0
WINDOW 123 0 0 Left 2
WINDOW 39 0 0 Left 2
SYMATTR InstName I1
SYMATTR Value .00015
TEXT -280 -1216 Left 0 !.tran 0.2m
TEXT -280 -1248 Left 0 !.options plotwinsize=0
