Version 4
SHEET 1 3184 2244
WIRE -1776 -1664 -2896 -1664
WIRE -576 -1664 -1776 -1664
WIRE -32 -1664 -576 -1664
WIRE 1120 -1664 -32 -1664
WIRE 2176 -1664 1120 -1664
WIRE 2464 -1664 2176 -1664
WIRE 2464 -1536 2464 -1664
WIRE -2896 -1520 -2896 -1664
WIRE -1776 -1520 -1776 -1664
WIRE -576 -1520 -576 -1664
WIRE 1120 -1520 1120 -1664
WIRE 2176 -1520 2176 -1664
WIRE -32 -1504 -32 -1664
WIRE -656 -1376 -800 -1376
WIRE -576 -1360 -576 -1440
WIRE -416 -1360 -576 -1360
WIRE -32 -1360 -32 -1424
WIRE -32 -1360 -192 -1360
WIRE -656 -1344 -656 -1376
WIRE 512 -1344 368 -1344
WIRE -2896 -1312 -2896 -1440
WIRE -2688 -1312 -2896 -1312
WIRE -800 -1312 -800 -1376
WIRE 512 -1312 512 -1344
WIRE 2176 -1312 2176 -1440
WIRE 2176 -1312 1968 -1312
WIRE 2464 -1312 2464 -1456
WIRE 368 -1280 368 -1344
WIRE -2464 -1264 -2624 -1264
WIRE -416 -1264 -416 -1360
WIRE -192 -1264 -192 -1360
WIRE 1904 -1264 1744 -1264
WIRE -576 -1248 -576 -1360
WIRE -32 -1248 -32 -1360
WIRE -2896 -1168 -2896 -1312
WIRE 2176 -1168 2176 -1312
WIRE -2688 -1120 -2688 -1216
WIRE -2688 -1120 -2832 -1120
WIRE -2624 -1120 -2688 -1120
WIRE -2464 -1120 -2464 -1264
WIRE -2464 -1120 -2544 -1120
WIRE -1776 -1120 -1776 -1440
WIRE -1776 -1120 -2464 -1120
WIRE -1728 -1120 -1776 -1120
WIRE -1616 -1120 -1664 -1120
WIRE -1104 -1120 -1616 -1120
WIRE -416 -1120 -416 -1200
WIRE -416 -1120 -1040 -1120
WIRE -192 -1120 -192 -1200
WIRE 832 -1120 -192 -1120
WIRE 960 -1120 896 -1120
WIRE 1008 -1120 960 -1120
WIRE 1120 -1120 1120 -1440
WIRE 1120 -1120 1072 -1120
WIRE 1744 -1120 1744 -1264
WIRE 1744 -1120 1120 -1120
WIRE 1824 -1120 1744 -1120
WIRE 1968 -1120 1968 -1216
WIRE 1968 -1120 1904 -1120
WIRE 2112 -1120 1968 -1120
WIRE -1776 -1024 -1776 -1120
WIRE 1120 -1024 1120 -1120
WIRE -2896 -992 -2896 -1072
WIRE -2832 -992 -2896 -992
WIRE -2688 -992 -2688 -1120
WIRE -2688 -992 -2752 -992
WIRE -2608 -992 -2688 -992
WIRE -2464 -992 -2464 -1120
WIRE -2464 -992 -2544 -992
WIRE 1744 -992 1744 -1120
WIRE 1824 -992 1744 -992
WIRE 1968 -992 1968 -1120
WIRE 1968 -992 1888 -992
WIRE 2032 -992 1968 -992
WIRE 2176 -992 2176 -1072
WIRE 2176 -992 2112 -992
WIRE -1616 -976 -1616 -1120
WIRE -1616 -976 -1712 -976
WIRE -1552 -976 -1616 -976
WIRE -1376 -976 -1488 -976
WIRE -1200 -976 -1312 -976
WIRE -1040 -976 -1136 -976
WIRE -880 -976 -976 -976
WIRE -720 -976 -816 -976
WIRE -416 -976 -416 -1120
WIRE -416 -976 -656 -976
WIRE -192 -976 -192 -1120
WIRE 64 -976 -192 -976
WIRE 160 -976 128 -976
WIRE 576 -976 224 -976
WIRE 656 -976 640 -976
WIRE 752 -976 720 -976
WIRE 864 -976 816 -976
WIRE 960 -976 960 -1120
WIRE 960 -976 928 -976
WIRE 1056 -976 960 -976
WIRE -416 -912 -416 -976
WIRE -192 -912 -192 -976
WIRE -576 -864 -576 -1168
WIRE -480 -864 -576 -864
WIRE -32 -864 -32 -1168
WIRE -32 -864 -128 -864
WIRE -576 -592 -576 -864
WIRE -32 -592 -32 -864
WIRE -2896 -544 -2896 -992
WIRE -2528 -544 -2896 -544
WIRE -1168 -544 -2448 -544
WIRE -640 -544 -1168 -544
WIRE 624 -544 32 -544
WIRE 1680 -544 624 -544
WIRE 2176 -544 2176 -992
WIRE 2176 -544 1760 -544
WIRE -1168 -432 -1168 -544
WIRE 624 -400 624 -544
WIRE -576 -288 -576 -496
WIRE -32 -288 -32 -496
WIRE -32 -288 -576 -288
WIRE -1168 -208 -1168 -352
WIRE -1040 -208 -1168 -208
WIRE 624 -208 624 -320
WIRE 624 -208 -960 -208
WIRE 784 -208 624 -208
WIRE 624 -160 512 -160
WIRE 624 -32 624 -160
WIRE 512 -16 512 -160
WIRE -1408 32 -1504 32
WIRE -1504 80 -1504 32
WIRE 624 144 624 48
WIRE 784 144 784 -208
WIRE 784 144 624 144
WIRE -1408 160 -1408 32
WIRE 512 208 512 48
WIRE 624 208 624 144
WIRE 624 208 512 208
WIRE 624 256 624 208
WIRE 784 256 784 144
WIRE -3088 272 -3200 272
WIRE -2896 272 -2896 -544
WIRE -2896 272 -3024 272
WIRE 2176 288 2176 -544
WIRE 2304 288 2176 288
WIRE 2480 288 2368 288
WIRE -1776 304 -1776 -928
WIRE -1776 304 -1936 304
WIRE 1120 304 1120 -928
WIRE 1280 304 1120 304
WIRE 1776 304 1600 304
WIRE -1408 320 -1408 240
WIRE -1168 320 -1168 -208
WIRE -1168 320 -1408 320
WIRE -800 352 -800 -1232
WIRE -800 352 -944 352
WIRE -480 352 -800 352
WIRE 224 352 -288 352
WIRE 368 352 368 -1200
WIRE 368 352 224 352
WIRE 784 384 784 336
WIRE 1600 400 1600 304
WIRE 1776 400 1776 304
WIRE -1776 416 -1776 304
WIRE -1616 416 -1616 -976
WIRE -1408 416 -1408 320
WIRE 960 416 960 -976
WIRE 1120 416 1120 304
WIRE -3200 432 -3200 272
WIRE -1936 432 -1936 304
WIRE 1280 432 1280 304
WIRE -2896 448 -2896 272
WIRE -800 448 -800 352
WIRE -576 448 -576 -288
WIRE -416 448 -416 -816
WIRE -192 448 -192 -816
WIRE 368 448 368 352
WIRE 2176 448 2176 288
WIRE 2480 448 2480 288
WIRE 624 480 624 336
WIRE -944 496 -944 352
WIRE -864 496 -944 496
WIRE -480 496 -480 352
WIRE -480 496 -512 496
WIRE -288 496 -288 352
WIRE -288 496 -352 496
WIRE 224 496 224 352
WIRE 224 496 -128 496
WIRE 304 496 224 496
WIRE -3200 624 -3200 512
WIRE -3040 624 -3200 624
WIRE -2896 624 -2896 528
WIRE -2896 624 -3040 624
WIRE -1936 624 -1936 496
WIRE -1776 624 -1776 496
WIRE -1776 624 -1936 624
WIRE -1616 624 -1616 496
WIRE -1616 624 -1776 624
WIRE -1408 624 -1408 496
WIRE -1408 624 -1616 624
WIRE -800 624 -800 544
WIRE -800 624 -1408 624
WIRE -576 624 -576 544
WIRE -576 624 -800 624
WIRE -416 624 -416 544
WIRE -416 624 -576 624
WIRE -192 624 -192 544
WIRE -192 624 -416 624
WIRE 368 624 368 544
WIRE 368 624 -192 624
WIRE 624 624 624 560
WIRE 624 624 368 624
WIRE 784 624 784 464
WIRE 784 624 624 624
WIRE 960 624 960 496
WIRE 960 624 784 624
WIRE 1120 624 1120 496
WIRE 1120 624 960 624
WIRE 1280 624 1280 496
WIRE 1280 624 1120 624
WIRE 1600 624 1600 480
WIRE 1600 624 1280 624
WIRE 2176 640 2176 528
WIRE 2320 640 2176 640
WIRE 2480 640 2480 528
WIRE 2480 640 2320 640
WIRE -3040 688 -3040 624
WIRE 2320 704 2320 640
FLAG 2320 704 0
FLAG 2464 -1312 0
FLAG -3040 688 0
FLAG 1776 400 0
FLAG 512 -1312 0
FLAG -1504 80 0
FLAG -656 -1344 0
DATAFLAG -576 -720 ""
DATAFLAG -32 -736 ""
DATAFLAG -112 -976 ""
DATAFLAG -1280 -1120 ""
DATAFLAG 672 -1120 ""
DATAFLAG -1008 624 ""
DATAFLAG 304 -1664 ""
DATAFLAG -304 -288 ""
DATAFLAG 176 -544 ""
DATAFLAG -912 -544 ""
DATAFLAG 1968 -544 ""
DATAFLAG -2720 -544 ""
DATAFLAG 1376 -1120 ""
DATAFLAG -2096 -1120 ""
DATAFLAG -480 -976 ""
DATAFLAG -192 -656 ""
DATAFLAG -416 -656 ""
DATAFLAG -448 -1360 ""
DATAFLAG -160 -1360 ""
DATAFLAG -1616 -784 ""
DATAFLAG 960 -704 ""
DATAFLAG -2352 -544 ""
SYMBOL voltage 624 464 R0
WINDOW 123 0 0 Left 2
WINDOW 39 24 68 Left 2
SYMATTR SpiceLine Rser=1
SYMATTR InstName V1
SYMATTR Value PULSE(0 10 0 20n 20n 50u 100u 5)
SYMBOL npn -640 -592 R0
SYMATTR InstName Q1
SYMATTR Value 2N3904
SYMBOL npn 32 -592 M0
SYMATTR InstName Q2
SYMATTR Value 2N3904
SYMBOL pnp -480 -816 M180
SYMATTR InstName Q4
SYMATTR Value 2N3906
SYMBOL pnp -128 -816 R180
SYMATTR InstName Q5
SYMATTR Value 2N3906
SYMBOL res -592 -1264 R0
SYMATTR InstName R6
SYMATTR Value 33K
SYMBOL res 608 -416 R0
SYMATTR InstName R7
SYMATTR Value 1K
SYMBOL res -592 -1536 R0
SYMATTR InstName R8
SYMATTR Value 6.81K
SYMBOL res -48 -1520 R0
SYMATTR InstName R9
SYMATTR Value 6.81K
SYMBOL diode 64 -960 R270
WINDOW 0 32 32 VTop 2
WINDOW 3 0 32 VBottom 2
SYMATTR InstName D3
SYMATTR Value 1N4148
SYMBOL diode 160 -960 R270
WINDOW 0 32 32 VTop 2
WINDOW 3 0 32 VBottom 2
SYMATTR InstName D4
SYMATTR Value 1N4148
SYMBOL diode 576 -960 R270
WINDOW 0 32 32 VTop 2
WINDOW 3 0 32 VBottom 2
SYMATTR InstName D5
SYMATTR Value 1N4148
SYMBOL diode 656 -960 R270
WINDOW 0 32 32 VTop 2
WINDOW 3 0 32 VBottom 2
SYMATTR InstName D6
SYMATTR Value 1N4148
SYMBOL diode 752 -960 R270
WINDOW 0 32 32 VTop 2
WINDOW 3 0 32 VBottom 2
SYMATTR InstName D7
SYMATTR Value 1N4148
SYMBOL diode 864 -960 R270
WINDOW 0 32 32 VTop 2
WINDOW 3 0 32 VBottom 2
SYMATTR InstName D8
SYMATTR Value 1N4148
SYMBOL cap 896 -1136 R90
WINDOW 0 0 32 VBottom 2
WINDOW 3 32 32 VTop 2
SYMATTR InstName C1
SYMATTR Value .02µF
SYMBOL res 1104 -1536 R0
SYMATTR InstName R10
SYMATTR Value 3300
SYMBOL pnp 1056 -928 M180
SYMATTR InstName Q6
SYMATTR Value 2N2907
SYMBOL diode 1008 -1104 R270
WINDOW 0 32 32 VTop 2
WINDOW 3 0 32 VBottom 2
SYMATTR InstName D9
SYMATTR Value 1N4148
SYMBOL res 1104 400 R0
SYMATTR InstName R11
SYMATTR Value 330
SYMBOL res 944 400 R0
SYMATTR InstName R12
SYMATTR Value 10K
SYMBOL cap 1264 432 R0
SYMATTR InstName C2
SYMATTR Value .02µ
SYMBOL res 2160 432 R0
SYMATTR InstName R14
SYMATTR Value 3.3
SYMBOL cap 2368 272 R90
WINDOW 0 0 32 VBottom 2
WINDOW 3 32 32 VTop 2
SYMATTR InstName C4
SYMATTR Value .3µ
SYMBOL res 2464 432 R0
SYMATTR InstName R1
SYMATTR Value 3.3
SYMBOL voltage 2464 -1552 R0
WINDOW 123 0 0 Left 2
WINDOW 39 0 0 Left 2
SYMATTR InstName V2
SYMATTR Value 50
SYMBOL diode -656 -960 M270
WINDOW 0 32 32 VTop 2
WINDOW 3 0 32 VBottom 2
SYMATTR InstName D10
SYMATTR Value 1N4148
SYMBOL diode -816 -960 M270
WINDOW 0 32 32 VTop 2
WINDOW 3 0 32 VBottom 2
SYMATTR InstName D11
SYMATTR Value 1N4148
SYMBOL diode -976 -960 M270
WINDOW 0 32 32 VTop 2
WINDOW 3 0 32 VBottom 2
SYMATTR InstName D12
SYMATTR Value 1N4148
SYMBOL diode -1136 -960 M270
WINDOW 0 32 32 VTop 2
WINDOW 3 0 32 VBottom 2
SYMATTR InstName D13
SYMATTR Value 1N4148
SYMBOL diode -1488 -960 M270
WINDOW 0 32 32 VTop 2
WINDOW 3 0 32 VBottom 2
SYMATTR InstName D14
SYMATTR Value 1N4148
SYMBOL cap -1104 -1136 M90
WINDOW 0 0 32 VBottom 2
WINDOW 3 32 32 VTop 2
SYMATTR InstName C3
SYMATTR Value .02µF
SYMBOL res -1760 -1536 M0
SYMATTR InstName R2
SYMATTR Value 3300
SYMBOL pnp -1712 -928 R180
SYMATTR InstName Q7
SYMATTR Value 2N2907
SYMBOL diode -1664 -1104 M270
WINDOW 0 32 32 VTop 2
WINDOW 3 0 32 VBottom 2
SYMATTR InstName D15
SYMATTR Value 1N4148
SYMBOL res -1760 400 M0
SYMATTR InstName R13
SYMATTR Value 330
SYMBOL res -1600 400 M0
SYMATTR InstName R15
SYMATTR Value 10K
SYMBOL cap -1920 432 M0
SYMATTR InstName C5
SYMATTR Value .02µ
SYMBOL res -2880 432 M0
SYMATTR InstName R16
SYMATTR Value 3.3
SYMBOL cap -3088 256 M90
WINDOW 0 0 32 VBottom 2
WINDOW 3 32 32 VTop 2
SYMATTR InstName C6
SYMATTR Value .3µ
SYMBOL res -3184 416 M0
SYMATTR InstName R17
SYMATTR Value 3.3
SYMBOL res 1776 -560 R90
WINDOW 0 0 56 VBottom 2
WINDOW 3 32 56 VTop 2
SYMATTR InstName R21
SYMATTR Value 2K
SYMBOL res -2432 -560 R90
WINDOW 0 0 56 VBottom 2
WINDOW 3 32 56 VTop 2
SYMATTR InstName R23
SYMATTR Value 2K
SYMBOL res -1184 -448 R0
SYMATTR InstName R24
SYMATTR Value 1K
SYMBOL res -48 -1264 R0
SYMATTR InstName R25
SYMATTR Value 33K
SYMBOL diode -1312 -960 M270
WINDOW 0 32 32 VTop 2
WINDOW 3 0 32 VBottom 2
SYMATTR InstName D16
SYMATTR Value 1N4148
SYMBOL zener -432 -1200 M180
WINDOW 0 24 64 Left 2
WINDOW 3 24 0 Left 2
SYMATTR InstName D1
SYMATTR Value UDZV6_8B
SYMBOL zener -208 -1200 M180
WINDOW 0 24 64 Left 2
WINDOW 3 24 0 Left 2
SYMATTR InstName D2
SYMATTR Value UDZV6_8B
SYMBOL voltage 1600 384 R0
WINDOW 123 0 0 Left 2
WINDOW 39 24 124 Left 2
SYMATTR SpiceLine Rser=0
SYMATTR InstName V3
SYMATTR Value 10
SYMBOL ind 2160 -1536 R0
SYMATTR InstName L1
SYMATTR Value 0.25mH
SYMATTR SpiceLine Ipk=1000 Rser=1 Rpar=680 Cpar=.00001uf
SYMBOL ind -2912 -1536 R0
SYMATTR InstName L2
SYMATTR Value 0.25mH
SYMATTR SpiceLine Ipk=1000 Rser=1 Rpar=680 Cpar=.00001uf
SYMBOL npn -512 448 M0
SYMATTR InstName Q3
SYMATTR Value 2N3904
SYMBOL npn -128 448 M0
SYMATTR InstName Q9
SYMATTR Value 2N3904
SYMBOL npn 304 448 R0
SYMATTR InstName Q10
SYMATTR Value 2N3904
SYMBOL res 384 -1296 M0
SYMATTR InstName R4
SYMATTR Value 18K
SYMBOL npn -352 448 M0
SYMATTR InstName Q11
SYMATTR Value 2N3904
SYMBOL res -1424 144 R0
SYMATTR InstName R5
SYMATTR Value 2020
SYMBOL res -1424 400 R0
SYMATTR InstName R18
SYMATTR Value 1980
SYMBOL res -944 -224 R90
WINDOW 0 0 56 VBottom 2
WINDOW 3 32 56 VTop 2
SYMATTR InstName R19
SYMATTR Value 20K
SYMBOL res 608 240 R0
SYMATTR InstName R20
SYMATTR Value 1000
SYMBOL npn -2624 -1312 M0
SYMATTR InstName Q13
SYMATTR Value 2N3904
SYMBOL npn -2832 -1168 M0
SYMATTR InstName Q15
SYMATTR Value 2N3055
SYMBOL res -2736 -1008 R90
WINDOW 0 0 56 VBottom 2
WINDOW 3 32 56 VTop 2
SYMATTR InstName R29
SYMATTR Value 15
SYMBOL res -2528 -1136 R90
WINDOW 0 0 56 VBottom 2
WINDOW 3 32 56 VTop 2
SYMATTR InstName R30
SYMATTR Value 100
SYMBOL diode -2608 -976 R270
WINDOW 0 32 32 VTop 2
WINDOW 3 0 32 VBottom 2
SYMATTR InstName D17
SYMATTR Value 1N4148
SYMBOL npn 1904 -1312 R0
SYMATTR InstName Q16
SYMATTR Value 2N3904
SYMBOL npn 2112 -1168 R0
SYMATTR InstName Q17
SYMATTR Value 2N3055
SYMBOL res 2016 -1008 M90
WINDOW 0 0 56 VBottom 2
WINDOW 3 32 56 VTop 2
SYMATTR InstName R26
SYMATTR Value 15
SYMBOL res 1808 -1136 M90
WINDOW 0 0 56 VBottom 2
WINDOW 3 32 56 VTop 2
SYMATTR InstName R28
SYMATTR Value 100
SYMBOL diode 1888 -976 M270
WINDOW 0 32 32 VTop 2
WINDOW 3 0 32 VBottom 2
SYMATTR InstName D18
SYMATTR Value 1N4148
SYMBOL voltage 784 368 R0
WINDOW 123 0 0 Left 2
WINDOW 39 0 0 Left 2
SYMATTR InstName V4
SYMATTR Value SINE(5 10 20K 0 0 0 6)
SYMBOL npn -864 448 R0
SYMATTR InstName Q8
SYMATTR Value 2N3904
SYMBOL res -784 -1328 M0
SYMATTR InstName R3
SYMATTR Value 2.2K
SYMBOL res 768 240 R0
SYMATTR InstName R22
SYMATTR Value 1000000
SYMBOL res 608 -48 R0
SYMATTR InstName R27
SYMATTR Value 15
SYMBOL cap 496 -16 R0
SYMATTR InstName C7
SYMATTR Value 3.3µF
TEXT 216 -1776 Left 0 !.tran 0.2m
TEXT 216 -1808 Left 0 !.options plotwinsize=0
