Version 4
SHEET 1 880 680
WIRE 272 -272 96 -272
WIRE 528 -272 272 -272
WIRE 96 -224 96 -272
WIRE 528 -224 528 -272
WIRE 272 -160 272 -272
WIRE 96 -80 96 -144
WIRE 528 -80 528 -144
WIRE 96 -16 96 -80
WIRE 528 -16 528 -80
WIRE -240 32 -320 32
WIRE -128 32 -176 32
WIRE -80 32 -128 32
WIRE 48 32 0 32
WIRE 272 32 272 -80
WIRE 320 32 272 32
WIRE 480 32 400 32
WIRE -128 80 -128 32
WIRE 272 80 272 32
WIRE 112 112 112 96
WIRE 544 112 544 96
WIRE 544 112 112 112
WIRE 576 112 544 112
WIRE 576 144 576 112
WIRE -320 192 -320 32
WIRE -128 208 -128 160
WIRE 80 256 80 96
WIRE 512 256 512 96
WIRE 512 256 80 256
WIRE 576 256 576 224
WIRE 576 256 512 256
WIRE 64 304 64 80
WIRE 272 304 64 304
WIRE 576 304 576 256
WIRE 272 336 272 304
WIRE -320 400 -320 272
WIRE 64 448 64 304
WIRE 144 448 64 448
WIRE 272 448 272 416
WIRE 272 448 208 448
WIRE 352 448 272 448
WIRE 496 448 496 80
WIRE 496 448 416 448
WIRE 688 464 576 464
WIRE 64 512 64 448
WIRE 496 512 496 448
WIRE 688 544 688 464
WIRE 688 656 688 624
WIRE 64 672 64 592
WIRE 496 672 496 592
WIRE 496 672 64 672
WIRE 576 672 576 464
WIRE 576 672 496 672
FLAG 272 80 0
FLAG 688 656 0
FLAG -320 400 0
FLAG 576 304 0
FLAG 96 -80 plate1
FLAG 528 -80 plate2
FLAG -128 208 0
SYMBOL Misc\\triodeh 96 32 R0
SYMATTR InstName U1
SYMATTR Value 12AX7
SYMBOL Misc\\triodeh 528 32 R0
SYMATTR InstName U2
SYMATTR Value 12AX7
SYMBOL res 80 -240 R0
SYMATTR InstName R1
SYMATTR Value 100K
SYMATTR SpiceLine tol=1 pwr=0.1
SYMBOL res 512 -240 R0
SYMATTR InstName R2
SYMATTR Value 150K
SYMATTR SpiceLine tol=1 pwr=0.1
SYMBOL res 48 496 R0
SYMATTR InstName R3
SYMATTR Value 22K
SYMATTR SpiceLine tol=1 pwr=0.1
SYMBOL res 256 320 R0
SYMATTR InstName R4
SYMATTR Value 4.7K
SYMATTR SpiceLine tol=1 pwr=0.1
SYMBOL res 480 496 R0
SYMATTR InstName R5
SYMATTR Value 22K
SYMATTR SpiceLine tol=1 pwr=0.1
SYMBOL cap 208 432 R90
WINDOW 0 0 32 VBottom 2
WINDOW 3 32 32 VTop 2
SYMATTR InstName C1
SYMATTR Value 0.00012µ
SYMATTR SpiceLine V=25 Irms=63.1m Rser=3.62516 Lser=0 mfg="KEMET" pn="C0402C102K3RAC" type="X7R"
SYMBOL cap 416 432 R90
WINDOW 0 0 32 VBottom 2
WINDOW 3 32 32 VTop 2
SYMATTR InstName C2
SYMATTR Value 100µ
SYMATTR SpiceLine V=10
SYMBOL Misc\\battery 272 -176 R0
WINDOW 123 0 0 Left 2
WINDOW 39 0 0 Left 2
SYMATTR InstName V1
SYMATTR Value 350
SYMBOL Misc\\battery 688 640 R180
WINDOW 0 24 104 Left 2
WINDOW 3 24 16 Left 2
WINDOW 123 0 0 Left 2
WINDOW 39 24 -12 Left 2
SYMATTR InstName V2
SYMATTR Value 40
SYMBOL cap -176 16 R90
WINDOW 0 0 32 VBottom 2
WINDOW 3 32 32 VTop 2
SYMATTR InstName C3
SYMATTR Value 0.22µ
SYMATTR SpiceLine V=16 Irms=1.06 Rser=0.0836489 Lser=0 mfg="KEMET" pn="C0603C334K4RAC" type="X7R"
SYMBOL Misc\\signal -320 176 R0
WINDOW 123 0 0 Left 2
WINDOW 39 0 0 Left 2
SYMATTR InstName V3
SYMATTR Value SINE(0 1 60)
SYMBOL Misc\\signal 576 128 R0
WINDOW 123 0 0 Left 2
WINDOW 39 0 0 Left 2
SYMATTR InstName V4
SYMATTR Value SINE(0 8.91 60)
SYMBOL res -144 64 R0
SYMATTR InstName R6
SYMATTR Value 2200K
SYMBOL res 16 16 R90
WINDOW 0 0 56 VBottom 2
WINDOW 3 32 56 VTop 2
SYMATTR InstName R7
SYMATTR Value 47
SYMBOL res 416 16 R90
WINDOW 0 0 56 VBottom 2
WINDOW 3 32 56 VTop 2
SYMATTR InstName R8
SYMATTR Value 47
TEXT -376 -104 Left 2 !.tran 15S startup uic
TEXT -368 -152 Left 2 !.inc dmtriodep.inc
