Version 4
SHEET 1 3392 2244
WIRE -1936 -1664 -2144 -1664
WIRE -1376 -1664 -1936 -1664
WIRE -576 -1664 -1376 -1664
WIRE -32 -1664 -576 -1664
WIRE 768 -1664 -32 -1664
WIRE 1392 -1664 768 -1664
WIRE 1536 -1664 1392 -1664
WIRE 1680 -1664 1536 -1664
WIRE -32 -1632 -32 -1664
WIRE -576 -1616 -576 -1664
WIRE 1680 -1536 1680 -1664
WIRE -1936 -1520 -1936 -1664
WIRE -1376 -1520 -1376 -1664
WIRE 768 -1520 768 -1664
WIRE 1392 -1520 1392 -1664
WIRE 1536 -1520 1536 -1664
WIRE -2144 -1504 -2144 -1664
WIRE -576 -1488 -576 -1536
WIRE -416 -1488 -576 -1488
WIRE -32 -1488 -32 -1552
WIRE -32 -1488 -192 -1488
WIRE -32 -1456 -32 -1488
WIRE -576 -1440 -576 -1488
WIRE -416 -1440 -416 -1488
WIRE -192 -1440 -192 -1488
WIRE -1376 -1328 -1376 -1440
WIRE -1328 -1328 -1376 -1328
WIRE -1232 -1328 -1264 -1328
WIRE -976 -1328 -1232 -1328
WIRE -416 -1328 -416 -1376
WIRE -416 -1328 -912 -1328
WIRE -192 -1328 -192 -1376
WIRE 256 -1328 -192 -1328
WIRE 640 -1328 320 -1328
WIRE 672 -1328 640 -1328
WIRE 768 -1328 768 -1440
WIRE 768 -1328 736 -1328
WIRE -2144 -1312 -2144 -1424
WIRE -1936 -1312 -1936 -1440
WIRE -1936 -1312 -2144 -1312
WIRE 1392 -1312 1392 -1440
WIRE 1536 -1312 1536 -1440
WIRE 1536 -1312 1392 -1312
WIRE 1680 -1312 1680 -1456
WIRE 1392 -1216 1392 -1312
WIRE 1504 -1216 1392 -1216
WIRE 1680 -1216 1568 -1216
WIRE -2144 -1200 -2240 -1200
WIRE -1936 -1200 -1936 -1312
WIRE -1936 -1200 -2080 -1200
WIRE -1936 -1168 -1936 -1200
WIRE 1392 -1168 1392 -1216
WIRE 1680 -1168 1680 -1216
WIRE -2240 -1152 -2240 -1200
WIRE -1376 -1120 -1376 -1328
WIRE -1376 -1120 -1792 -1120
WIRE 768 -1120 768 -1328
WIRE 1248 -1120 768 -1120
WIRE -1376 -1024 -1376 -1120
WIRE 768 -1024 768 -1120
WIRE 1680 -1024 1680 -1088
WIRE -2240 -1008 -2240 -1072
WIRE -1232 -976 -1232 -1328
WIRE -1232 -976 -1312 -976
WIRE -1184 -976 -1232 -976
WIRE -1088 -976 -1120 -976
WIRE -992 -976 -1024 -976
WIRE -896 -976 -928 -976
WIRE -800 -976 -832 -976
WIRE -704 -976 -736 -976
WIRE -416 -976 -416 -1328
WIRE -416 -976 -640 -976
WIRE -192 -976 -192 -1328
WIRE 48 -976 -192 -976
WIRE 144 -976 112 -976
WIRE 240 -976 208 -976
WIRE 336 -976 304 -976
WIRE 432 -976 400 -976
WIRE 528 -976 496 -976
WIRE 640 -976 640 -1328
WIRE 640 -976 592 -976
WIRE 704 -976 640 -976
WIRE -416 -912 -416 -976
WIRE -192 -912 -192 -976
WIRE -576 -864 -576 -1360
WIRE -480 -864 -576 -864
WIRE -32 -864 -32 -1376
WIRE -32 -864 -128 -864
WIRE -576 -800 -576 -864
WIRE -32 -800 -32 -864
WIRE -2112 -752 -2176 -752
WIRE -1936 -752 -1936 -1024
WIRE -1936 -752 -2048 -752
WIRE -1680 -752 -1936 -752
WIRE -1488 -752 -1600 -752
WIRE -640 -752 -1488 -752
WIRE 544 -752 32 -752
WIRE 976 -752 544 -752
WIRE 1392 -752 1392 -1024
WIRE 1392 -752 1056 -752
WIRE 1456 -752 1392 -752
WIRE 1584 -752 1520 -752
WIRE -2176 -704 -2176 -752
WIRE -1936 -704 -1936 -752
WIRE 1392 -704 1392 -752
WIRE -1488 -688 -1488 -752
WIRE 544 -688 544 -752
WIRE 1584 -688 1584 -752
WIRE -576 -640 -576 -704
WIRE -32 -640 -32 -704
WIRE -32 -640 -576 -640
WIRE 1056 -592 944 -592
WIRE 1232 -592 1120 -592
WIRE -2176 -560 -2176 -624
WIRE -2176 -560 -2256 -560
WIRE -1936 -560 -1936 -624
WIRE -1936 -560 -2176 -560
WIRE -1840 -560 -1936 -560
WIRE -1664 -560 -1760 -560
WIRE -1488 -560 -1488 -608
WIRE -1488 -560 -1664 -560
WIRE 384 -560 -1488 -560
WIRE 544 -560 544 -608
WIRE 544 -560 464 -560
WIRE 1392 -560 1392 -624
WIRE 1584 -560 1584 -608
WIRE 1584 -560 1392 -560
WIRE 1584 -512 1584 -560
WIRE -2256 -480 -2256 -560
WIRE -944 -448 -1024 -448
WIRE -800 -448 -864 -448
WIRE -688 -448 -800 -448
WIRE -64 -448 -288 -448
WIRE 64 -448 -64 -448
WIRE 144 -448 64 -448
WIRE 304 -448 224 -448
WIRE 544 -448 544 -560
WIRE 944 -448 944 -592
WIRE 944 -448 544 -448
WIRE 1056 -448 944 -448
WIRE 1232 -448 1232 -592
WIRE 1232 -448 1136 -448
WIRE 1328 -448 1232 -448
WIRE 1600 -448 1328 -448
WIRE 1600 -416 1600 -448
WIRE 768 -400 768 -928
WIRE 880 -400 768 -400
WIRE 1328 -400 1328 -448
WIRE -1376 -368 -1376 -928
WIRE -1376 -368 -1488 -368
WIRE -1024 -368 -1024 -448
WIRE -800 -368 -800 -448
WIRE -576 -368 -576 -640
WIRE -416 -368 -416 -816
WIRE -192 -368 -192 -816
WIRE 64 -368 64 -448
WIRE 304 -368 304 -448
WIRE -1664 -352 -1664 -560
WIRE -688 -320 -688 -448
WIRE -688 -320 -736 -320
WIRE -640 -320 -688 -320
WIRE -288 -320 -288 -448
WIRE -288 -320 -352 -320
WIRE -64 -320 -64 -448
WIRE -64 -320 -128 -320
WIRE 0 -320 -64 -320
WIRE 640 -320 640 -976
WIRE 768 -320 768 -400
WIRE 1600 -320 1600 -336
WIRE 1328 -304 1328 -320
WIRE -2176 -288 -2176 -560
WIRE 880 -288 880 -400
WIRE -1376 -256 -1376 -368
WIRE -1488 -240 -1488 -368
WIRE -1232 -240 -1232 -976
WIRE -800 -224 -800 -272
WIRE -576 -224 -576 -272
WIRE -416 -208 -416 -272
WIRE -192 -208 -192 -272
WIRE 64 -208 64 -272
WIRE 1328 -128 1328 -224
WIRE 1600 -128 1600 -240
WIRE 1600 -128 1328 -128
WIRE 1328 -80 1328 -128
WIRE -2176 -64 -2176 -208
WIRE -1664 -64 -1664 -272
WIRE -1664 -64 -2176 -64
WIRE -1488 -64 -1488 -176
WIRE -1488 -64 -1664 -64
WIRE -1376 -64 -1376 -176
WIRE -1376 -64 -1488 -64
WIRE -1232 -64 -1232 -160
WIRE -1232 -64 -1376 -64
WIRE -800 -64 -800 -144
WIRE -800 -64 -1232 -64
WIRE -576 -64 -576 -144
WIRE -576 -64 -800 -64
WIRE -416 -64 -416 -128
WIRE -416 -64 -576 -64
WIRE -192 -64 -192 -128
WIRE -192 -64 -416 -64
WIRE 64 -64 64 -128
WIRE 64 -64 -192 -64
WIRE 640 -64 640 -240
WIRE 640 -64 64 -64
WIRE 768 -64 768 -240
WIRE 768 -64 640 -64
WIRE 880 -64 880 -224
WIRE 880 -64 768 -64
FLAG 1584 -512 0
FLAG 1680 -1312 0
FLAG 304 -368 0
FLAG -1024 -368 0
FLAG 1328 -80 0
FLAG 1680 -1024 0
FLAG -2240 -1008 0
FLAG -2256 -480 0
DATAFLAG -576 -1232 ""
DATAFLAG -32 -1184 ""
DATAFLAG -96 -976 ""
DATAFLAG -784 -1328 ""
DATAFLAG 80 -1328 ""
DATAFLAG -1024 -64 ""
DATAFLAG 304 -1664 ""
DATAFLAG -304 -640 ""
DATAFLAG 96 -752 ""
DATAFLAG -960 -560 ""
DATAFLAG 1248 -752 ""
DATAFLAG -1824 -752 ""
DATAFLAG 848 -1120 ""
DATAFLAG -496 -976 ""
DATAFLAG -192 -736 ""
DATAFLAG -416 -736 ""
DATAFLAG -416 -1488 ""
DATAFLAG -192 -1488 ""
DATAFLAG -1024 -752 ""
SYMBOL voltage 1328 -320 R0
WINDOW 123 0 0 Left 2
WINDOW 39 21 97 Left 2
WINDOW 3 22 138 Left 2
SYMATTR SpiceLine Rser=1
SYMATTR Value PULSE(0 -10 0 20n 20n 50u 100u 5)
SYMATTR InstName V1
SYMBOL npn -640 -800 R0
SYMATTR InstName Q1
SYMATTR Value 2N3904
SYMBOL npn 32 -800 M0
SYMATTR InstName Q2
SYMATTR Value 2N3904
SYMBOL pnp -480 -816 M180
SYMATTR InstName Q4
SYMATTR Value 2N3906
SYMBOL pnp -128 -816 R180
SYMATTR InstName Q5
SYMATTR Value 2N3906
SYMBOL res -592 -1456 R0
SYMATTR InstName R6
SYMATTR Value 33K
SYMBOL res 528 -704 R0
SYMATTR InstName R7
SYMATTR Value 1K
SYMBOL res -592 -1632 R0
SYMATTR InstName R8
SYMATTR Value 6.81K
SYMBOL res -48 -1648 R0
SYMATTR InstName R9
SYMATTR Value 6.81K
SYMBOL diode 48 -960 R270
WINDOW 0 32 32 VTop 2
WINDOW 3 0 32 VBottom 2
SYMATTR InstName D3
SYMATTR Value 1N4148
SYMBOL diode 144 -960 R270
WINDOW 0 32 32 VTop 2
WINDOW 3 0 32 VBottom 2
SYMATTR InstName D4
SYMATTR Value 1N4148
SYMBOL diode 240 -960 R270
WINDOW 0 32 32 VTop 2
WINDOW 3 0 32 VBottom 2
SYMATTR InstName D5
SYMATTR Value 1N4148
SYMBOL diode 336 -960 R270
WINDOW 0 32 32 VTop 2
WINDOW 3 0 32 VBottom 2
SYMATTR InstName D6
SYMATTR Value 1N4148
SYMBOL diode 432 -960 R270
WINDOW 0 32 32 VTop 2
WINDOW 3 0 32 VBottom 2
SYMATTR InstName D7
SYMATTR Value 1N4148
SYMBOL diode 528 -960 R270
WINDOW 0 32 32 VTop 2
WINDOW 3 0 32 VBottom 2
SYMATTR InstName D8
SYMATTR Value 1N4148
SYMBOL cap 320 -1344 R90
WINDOW 0 0 32 VBottom 2
WINDOW 3 32 32 VTop 2
SYMATTR InstName C1
SYMATTR Value .02µF
SYMBOL res 752 -1536 R0
SYMATTR InstName R10
SYMATTR Value 1200
SYMBOL pnp 704 -928 M180
SYMATTR InstName Q6
SYMATTR Value 2N2907
SYMBOL diode 672 -1312 R270
WINDOW 0 32 32 VTop 2
WINDOW 3 0 32 VBottom 2
SYMATTR InstName D9
SYMATTR Value 1N4148
SYMBOL res 752 -336 R0
SYMATTR InstName R11
SYMATTR Value 330
SYMBOL res 624 -336 R0
SYMATTR InstName R12
SYMATTR Value 10K
SYMBOL cap 864 -288 R0
SYMATTR InstName C2
SYMATTR Value .02µ
SYMBOL res 1376 -720 R0
SYMATTR InstName R14
SYMATTR Value 3.3
SYMBOL cap 1520 -768 R90
WINDOW 0 0 32 VBottom 2
WINDOW 3 32 32 VTop 2
SYMATTR InstName C4
SYMATTR Value .3µ
SYMBOL res 1568 -704 R0
SYMATTR InstName R1
SYMATTR Value 330
SYMBOL voltage 1680 -1552 R0
WINDOW 123 0 0 Left 2
WINDOW 39 0 0 Left 2
SYMATTR InstName V2
SYMATTR Value 50
SYMBOL diode -640 -960 M270
WINDOW 0 32 32 VTop 2
WINDOW 3 0 32 VBottom 2
SYMATTR InstName D10
SYMATTR Value 1N4148
SYMBOL diode -736 -960 M270
WINDOW 0 32 32 VTop 2
WINDOW 3 0 32 VBottom 2
SYMATTR InstName D11
SYMATTR Value 1N4148
SYMBOL diode -832 -960 M270
WINDOW 0 32 32 VTop 2
WINDOW 3 0 32 VBottom 2
SYMATTR InstName D12
SYMATTR Value 1N4148
SYMBOL diode -928 -960 M270
WINDOW 0 32 32 VTop 2
WINDOW 3 0 32 VBottom 2
SYMATTR InstName D13
SYMATTR Value 1N4148
SYMBOL diode -1120 -960 M270
WINDOW 0 32 32 VTop 2
WINDOW 3 0 32 VBottom 2
SYMATTR InstName D14
SYMATTR Value 1N4148
SYMBOL cap -976 -1344 M90
WINDOW 0 0 32 VBottom 2
WINDOW 3 32 32 VTop 2
SYMATTR InstName C3
SYMATTR Value .02µF
SYMBOL res -1360 -1536 M0
SYMATTR InstName R2
SYMATTR Value 1200
SYMBOL pnp -1312 -928 R180
SYMATTR InstName Q7
SYMATTR Value 2N2907
SYMBOL diode -1264 -1312 M270
WINDOW 0 32 32 VTop 2
WINDOW 3 0 32 VBottom 2
SYMATTR InstName D15
SYMATTR Value 1N4148
SYMBOL res -1360 -272 M0
SYMATTR InstName R13
SYMATTR Value 330
SYMBOL res -1216 -256 M0
SYMATTR InstName R15
SYMATTR Value 10K
SYMBOL cap -1472 -240 M0
SYMATTR InstName C5
SYMATTR Value .02µ
SYMBOL res -1920 -720 M0
SYMATTR InstName R16
SYMATTR Value 3.3
SYMBOL cap -2112 -768 M90
WINDOW 0 0 32 VBottom 2
WINDOW 3 32 32 VTop 2
SYMATTR InstName C6
SYMATTR Value .3µ
SYMBOL res -2160 -720 M0
SYMATTR InstName R17
SYMATTR Value 330
SYMBOL res 1072 -768 R90
WINDOW 0 0 56 VBottom 2
WINDOW 3 32 56 VTop 2
SYMATTR InstName R21
SYMATTR Value 2K
SYMBOL res -1584 -768 R90
WINDOW 0 0 56 VBottom 2
WINDOW 3 32 56 VTop 2
SYMATTR InstName R23
SYMATTR Value 2K
SYMBOL res -1504 -704 R0
SYMATTR InstName R24
SYMATTR Value 1K
SYMBOL res -48 -1472 R0
SYMATTR InstName R25
SYMATTR Value 33K
SYMBOL diode -1024 -960 M270
WINDOW 0 32 32 VTop 2
WINDOW 3 0 32 VBottom 2
SYMATTR InstName D16
SYMATTR Value 1N4148
SYMBOL zener -432 -1376 M180
WINDOW 0 24 64 Left 2
WINDOW 3 32 4 Left 2
SYMATTR InstName D1
SYMATTR Value UDZV6_8B
SYMBOL zener -208 -1376 M180
WINDOW 0 24 64 Left 2
WINDOW 3 24 0 Left 2
SYMATTR InstName D2
SYMATTR Value UDZV6_8B
SYMBOL voltage -2176 -304 R0
WINDOW 123 0 0 Left 2
WINDOW 39 24 124 Left 2
SYMATTR SpiceLine Rser=0
SYMATTR InstName V3
SYMATTR Value 10
SYMBOL ind 1376 -1536 R0
SYMATTR InstName L1
SYMATTR Value 0.25mH
SYMATTR SpiceLine Ipk=1000 Rser=1 Rpar=680 Cpar=.00001uf
SYMBOL ind -1952 -1536 R0
SYMATTR InstName L2
SYMATTR Value 0.25mH
SYMATTR SpiceLine Ipk=1000 Rser=1 Rpar=680 Cpar=.00001uf
SYMBOL npn -640 -368 R0
SYMATTR InstName Q3
SYMATTR Value 2N3904
SYMBOL npn -128 -368 M0
SYMATTR InstName Q9
SYMATTR Value 2N3904
SYMBOL npn 0 -368 R0
SYMATTR InstName Q10
SYMATTR Value 2N3904
SYMBOL res 240 -464 R90
WINDOW 0 0 56 VBottom 2
WINDOW 3 32 56 VTop 2
SYMATTR InstName R4
SYMATTR Value 10K
SYMBOL res -1856 -544 R270
WINDOW 0 32 56 VTop 2
WINDOW 3 0 56 VBottom 2
SYMATTR InstName R5
SYMATTR Value 2000
SYMBOL res -1680 -368 R0
SYMATTR InstName R18
SYMATTR Value 2000
SYMBOL res 480 -576 R90
WINDOW 0 0 56 VBottom 2
WINDOW 3 32 56 VTop 2
SYMATTR InstName R19
SYMATTR Value 20K
SYMBOL voltage 1600 -336 R0
WINDOW 123 0 0 Left 2
WINDOW 39 0 0 Left 2
WINDOW 3 39 59 Left 2
SYMATTR Value SINE(-5 5 20K 0 0 0 60)
SYMATTR InstName V4
SYMBOL npn -736 -368 M0
SYMATTR InstName Q8
SYMATTR Value 2N3904
SYMBOL res -960 -432 R270
WINDOW 0 32 56 VTop 2
WINDOW 3 0 56 VBottom 2
SYMATTR InstName R3
SYMATTR Value 2.2K
SYMBOL res 1040 -464 M90
WINDOW 0 0 56 VBottom 2
WINDOW 3 32 56 VTop 2
SYMATTR InstName R27
SYMATTR Value 1.5
SYMBOL cap 1056 -576 R270
WINDOW 0 32 32 VTop 2
WINDOW 3 0 32 VBottom 2
SYMATTR InstName C7
SYMATTR Value 3.3µF
SYMBOL res 1520 -1536 R0
SYMATTR InstName R31
SYMATTR Value 600
SYMBOL res -2160 -1520 R0
SYMATTR InstName R32
SYMATTR Value 600
SYMBOL diode 1504 -1200 R270
WINDOW 0 32 32 VTop 2
WINDOW 3 0 32 VBottom 2
SYMATTR InstName D19
SYMATTR Value 1N4148
SYMBOL voltage 1680 -1184 R0
WINDOW 123 0 0 Left 2
WINDOW 39 0 0 Left 2
SYMATTR InstName V5
SYMATTR Value 100
SYMBOL diode -2080 -1216 R90
WINDOW 0 0 32 VBottom 2
WINDOW 3 32 32 VTop 2
SYMATTR InstName D20
SYMATTR Value 1N4148
SYMBOL voltage -2240 -1168 R0
WINDOW 123 0 0 Left 2
WINDOW 39 0 0 Left 2
SYMATTR InstName V6
SYMATTR Value 100
SYMBOL Darlington\\MJ10007 1264 -1168 R0
SYMATTR InstName U1
SYMBOL Darlington\\MJ10007 -1808 -1168 M0
SYMATTR InstName U3
SYMBOL res 1584 -432 R0
SYMATTR InstName R22
SYMATTR Value 1000
SYMBOL npn -352 -368 M0
SYMATTR InstName Q11
SYMATTR Value 2N3904
SYMBOL res 48 -224 R0
SYMATTR InstName R20
SYMATTR Value 100
SYMATTR SpiceLine tol=1%
SYMBOL res -208 -224 R0
SYMATTR InstName R28
SYMATTR Value 100
SYMATTR SpiceLine tol=1%
SYMBOL res -432 -224 R0
SYMATTR InstName R29
SYMATTR Value 100
SYMATTR SpiceLine tol=1%
SYMBOL res -816 -240 R0
SYMATTR InstName R30
SYMATTR Value 22
SYMATTR SpiceLine tol=1%
SYMBOL res -592 -240 R0
SYMATTR InstName R26
SYMATTR Value 22
SYMATTR SpiceLine tol=1%
TEXT 248 -224 Left 2 !.tran 0.2m
TEXT 248 -160 Left 2 !.options plotwinsize=0
TEXT 936 -1512 Left 2 ;A 10 volt swing produces a \n1.45 amp swing for a closed \nloop gain of 0.145 amps/volt.  \n \nOpening the loop a \n2 mV swing produces a \n32.8 mA swing for an open \nloop gain of 16.4 amps/volt.
